  Page 1                                    Tue Apr 25 17:40:13 2023

  ******************************************************************
  *                           E P A N E T                          *
  *                   Hydraulic and Water Quality                  *
  *                   Analysis for Pipe Networks                   *
  *                         Version 2.00.12                        *
  ******************************************************************
  
  Analysis begun Tue Apr 25 17:40:13 2023

  Analysis ended Tue Apr 25 17:40:13 2023
